63
DD(21)
 O    0.5110336    4.0170854   -0.6238598  
 H    0.6825851    4.9643832   -0.6898407  
 H    1.3276621    3.5651043   -0.9774838  
 O    0.2638387    2.2704689    1.5316706  
 H    0.1350036    1.4871608    0.9461086  
 H    0.3534433    3.0198563    0.9090584  
 O   -3.5259590    1.8783362    0.5728680  
 H   -4.3981578    2.2714863    0.7012848  
 H   -3.0796717    1.8979173    1.4769295  
 O    1.3643590   -2.0346681    1.1540002  
 H    1.4924449   -1.7898710    2.0964521  
 H    2.2508378   -2.0454552    0.7394943  
 O   -2.1901851    1.8472954    2.8195581  
 H   -2.0172838    0.9266492    3.1233306  
 H   -1.3113542    2.1399254    2.5017389  
 O    3.6003434   -1.7931598   -0.4785753  
 H    4.3321943   -2.4158715   -0.5740814  
 H    3.0535819   -1.8957243   -1.3195335  
 O    2.0979724   -1.9589901   -2.6126893  
 H    1.7381228   -1.0549282   -2.7529373  
 H    1.2894916   -2.5078893   -2.5515353  
 O   -2.5740493   -2.6756292    1.6785796  
 H   -3.2092799   -3.3266192    2.0011971  
 H   -1.8814534   -3.1958861    1.1808175  
 O    3.9849981    0.8324458    0.3251322  
 H    4.9298257    1.0341253    0.3104832  
 H    3.9216076   -0.0949809   -0.0006631  
 O   -1.5116710    1.2235259   -3.6233470  
 H   -1.7987456    1.6719596   -4.4281430  
 H   -1.7249749    1.8506536   -2.8784133  
 O   -2.7200926   -0.6342528   -0.1578272  
 H   -3.1912761    0.1814000    0.1188491  
 H   -2.8861767   -1.3133302    0.5297535  
 O    1.3903320   -0.9554136    3.6631976  
 H    1.8497484   -0.1020635    3.4161290  
 H    1.7618402   -1.2192597    4.5140052  
 O    0.9574762    0.5470252   -2.5279775  
 H    0.2033555    0.7964473   -3.1000696  
 H    0.5362637    0.3603472   -1.6535930  
 O   -0.0535323    0.0227915   -0.0380115  
 H    0.4208277   -0.7288802    0.3867491  
 H   -1.0043290   -0.2423557   -0.0575186  
 O   -1.9268660    2.8484070   -1.5648810  
 H   -2.4548356    2.5801128   -0.7864056  
 H   -1.1255380    3.2881475   -1.2209763  
 O   -0.5964378   -3.8498119    0.3590157  
 H   -0.5854074   -3.7151212   -0.6104070  
 H    0.1802483   -3.3431828    0.6730038  
 O   -0.4188386   -3.2608264   -2.4075870  
 H   -0.6182996   -3.9706243   -3.0316600  
 H   -1.0962258   -2.5527718   -2.6040770  
 O    2.5508701    2.5796539   -1.5400601  
 H    3.0550419    2.0714122   -0.8779235  
 H    2.0557746    1.8846923   -2.0278187  
 O   -1.5081593   -0.7421428    3.5266842  
 H   -0.5416643   -0.8455265    3.6008388  
 H   -1.8062514   -1.4650519    2.9442756  
 O   -2.2734984   -1.3966863   -2.7908925  
 H   -2.0484890   -0.5386406   -3.1993841  
 H   -2.5806257   -1.1480409   -1.8941276  
 O    2.5121041    1.2749872    2.7770285  
 H    1.7506505    1.7659125    2.3933757  
 H    3.0864940    1.1124589    2.0056312  

